Circuit: * C:\Projects\Aqua\Git-OzoraProjects\LtSpiceWorkspace\FallingEdgeTrigger.asc

Direct Newton iteration for .op point succeeded.

Date: Sun Oct 15 21:48:25 2017
Total elapsed time: 0.114 seconds.

tnom = 27
temp = 27
method = modified trap
totiter = 4579
traniter = 4573
tranpoints = 1792
accept = 1618
rejected = 174
matrix size = 21
fillins = 12
solver = Normal
Matrix Compiler1: 1.65 KB object code size  0.3/0.3/[0.1]
Matrix Compiler2: 1.89 KB object code size  0.2/0.2/[0.2]

